[TITLE]
;;Project Title/Notes

[OPTIONS]
;;Option             Value
FLOW_UNITS           LPS
INFILTRATION         HORTON
FLOW_ROUTING         DYNWAVE
LINK_OFFSETS         DEPTH
MIN_SLOPE            0
ALLOW_PONDING        NO
SKIP_STEADY_STATE    NO

START_DATE           03/01/2021
START_TIME           00:00:00
REPORT_START_DATE    03/01/2021
REPORT_START_TIME    00:00:00
END_DATE             03/01/2021
END_TIME             08:00:00
SWEEP_START          01/01
SWEEP_END            12/31
DRY_DAYS             0
REPORT_STEP          00:05:00
WET_STEP             00:01:00
DRY_STEP             01:00:00
ROUTING_STEP         0:00:15 
RULE_STEP            00:00:00

INERTIAL_DAMPING     PARTIAL
NORMAL_FLOW_LIMITED  BOTH
FORCE_MAIN_EQUATION  H-W
VARIABLE_STEP        0.75
LENGTHENING_STEP     0
MIN_SURFAREA         12.566
MAX_TRIALS           8
HEAD_TOLERANCE       0.005
SYS_FLOW_TOL         5
LAT_FLOW_TOL         5
MINIMUM_STEP         0.5
THREADS              2

[REPORT]
;;Reporting Options
SUBCATCHMENTS NONE
NODES NONE
LINKS NONE

  [JUNCTIONS] 
;;Name            Elevation  (MaxDepth  InitDepth  SurDepth   Aponded)  
  147_WWTP        7.500      1.200      0.000      1.200      1.000     
  443_WWTP        4.747      3.253      0.000      3.253      1.000     
  184_WWTP        6.537      2.863      0.000      2.863      1.000     
  167_WWTP        5.886      3.414      0.000      3.414      1.000     
  444_WWTP        10.750     1.050      0.000      1.050      1.000     
  32_WWTP         8.100      1.200      0.000      1.200      1.000     
  380             7.650      2.150      0.000      2.150      1.000     
  153             6.510      3.590      0.000      3.590      1.000     
  377             2.419      5.581      0.000      5.581      1.000     
  104             7.374      2.026      0.000      2.026      1.000     
  269             3.665      8.135      0.000      8.135      1.000     
  405             8.500      0.800      0.000      0.800      1.000     
  29              6.850      2.550      0.000      2.550      1.000     
  76              7.200      0.800      0.000      0.800      1.000     
  442             7.200      0.800      0.000      0.800      1.000     
  272             7.762      4.038      0.000      4.038      1.000     
  254             2.538      7.162      0.000      7.162      1.000     
  10              4.237      6.663      0.000      6.663      1.000     
  299             7.900      0.900      0.000      0.900      1.000     
  411             6.340      3.060      0.000      3.060      1.000     
  91              4.503      7.297      0.000      7.297      1.000     
  308             1.664      7.636      0.000      7.636      1.000     
  87              2.334      7.066      0.000      7.066      1.000     
  183             7.500      1.300      0.000      1.300      1.000     
  68              2.350      6.450      0.000      6.450      1.000     
  25              2.142      6.558      0.000      6.558      1.000     
  31              5.608      3.692      0.000      3.692      1.000     
  144             5.137      2.863      0.000      2.863      1.000     
  461             2.587      6.113      0.000      6.113      1.000     
  456             10.900     0.800      0.000      0.800      1.000     
  65              4.312      3.688      0.000      3.688      1.000     
  373             4.686      3.314      0.000      3.314      1.000     
  63              2.999      7.001      0.000      7.001      1.000     
  396             3.632      5.068      0.000      5.068      1.000     
  395             8.700      1.100      0.000      1.100      1.000     
  154             10.800     0.900      0.000      0.900      1.000     
  458             7.443      2.657      0.000      2.657      1.000     
  301             3.627      4.373      0.000      4.373      1.000     
  73              8.000      1.400      0.000      1.400      1.000     
  208             5.432      6.368      0.000      6.368      1.000     
  88              5.478      6.322      0.000      6.322      1.000     
  284             7.000      1.000      0.000      1.000      1.000     
  21              8.500      0.900      0.000      0.900      1.000     
  172             8.257      2.043      0.000      2.043      1.000     
  276             9.935      1.765      0.000      1.765      1.000     
  273             3.602      7.198      0.000      7.198      1.000     
  421             5.545      5.355      0.000      5.355      1.000     
  253             6.943      3.957      0.000      3.957      1.000     
  213             7.516      2.484      0.000      2.484      1.000     
  93              5.080      6.720      0.000      6.720      1.000     
  89              8.350      0.950      0.000      0.950      1.000     
  453             2.204      7.496      0.000      7.496      1.000     
  98              2.125      6.675      0.000      6.675      1.000     
  173             2.301      5.999      0.000      5.999      1.000     
  86              3.424      5.976      0.000      5.976      1.000     
  69              2.749      6.051      0.000      6.051      1.000     
  26              7.800      0.900      0.000      0.900      1.000     
  137             2.943      6.357      0.000      6.357      1.000     
  18              7.200      0.800      0.000      0.800      1.000     
  145             7.200      0.800      0.000      0.800      1.000     
  224             7.200      0.800      0.000      0.800      1.000     
  148             3.207      5.493      0.000      5.493      1.000     
  143             5.851      2.149      0.000      2.149      1.000     
  40              0.772      7.928      0.000      7.928      1.000     
  372             5.544      3.256      0.000      3.256      1.000     
  486             7.100      0.900      0.000      0.900      1.000     
  67              4.075      5.325      0.000      5.325      1.000     
  113             4.096      5.904      0.000      5.904      1.000     
  51              5.330      3.970      0.000      3.970      1.000     
  401             2.432      7.368      0.000      7.368      1.000     
  316             9.300      0.800      0.000      0.800      1.000     
  438             6.600      1.400      0.000      1.400      1.000     
  74              2.297      5.703      0.000      5.703      1.000     
  436             9.300      0.800      0.000      0.800      1.000     
  306             5.922      5.878      0.000      5.878      1.000     
  210             6.701      5.099      0.000      5.099      1.000     
  111             8.800      1.500      0.000      1.500      1.000     
  252             10.800     0.900      0.000      0.900      1.000     
  249             6.869      3.131      0.000      3.131      1.000     
  274             4.787      6.013      0.000      6.013      1.000     
  237             7.756      2.244      0.000      2.244      1.000     
  219             10.000     0.900      0.000      0.900      1.000     
  241             7.606      3.294      0.000      3.294      1.000     
  410             8.450      0.950      0.000      0.950      1.000     
  335             8.990      2.810      0.000      2.810      1.000     
  92              6.328      5.372      0.000      5.372      1.000     
  191             8.500      0.800      0.000      0.800      1.000     
  263             2.554      7.146      0.000      7.146      1.000     
  489             3.089      5.711      0.000      5.711      1.000     
  430             4.193      5.807      0.000      5.807      1.000     
  211             3.527      4.773      0.000      4.773      1.000     
  216             3.329      5.471      0.000      5.471      1.000     
  70              8.000      0.800      0.000      0.800      1.000     
  138             3.597      5.103      0.000      5.103      1.000     
  149             7.900      0.800      0.000      0.800      1.000     
  460             3.883      4.817      0.000      4.817      1.000     
  150             6.822      1.178      0.000      1.178      1.000     
  128             8.600      0.800      0.000      0.800      1.000     
  44              1.778      6.922      0.000      6.922      1.000     
  39              7.900      0.800      0.000      0.800      1.000     
  304             7.258      1.542      0.000      1.542      1.000     
  371             9.600      0.800      0.000      0.800      1.000     
  47              5.466      2.534      0.000      2.534      1.000     
  38              5.114      4.886      0.000      4.886      1.000     
  61              6.184      2.516      0.000      2.516      1.000     
  106             3.151      6.649      0.000      6.649      1.000     
  437             9.297      2.403      0.000      2.403      1.000     
  498             3.061      6.239      0.000      6.239      1.000     
  400             7.100      0.900      0.000      0.900      1.000     
  11              3.684      4.316      0.000      4.316      1.000     
  367             7.550      2.550      0.000      2.550      1.000     
  492             11.000     0.800      0.000      0.800      1.000     
  472             9.300      0.800      0.000      0.800      1.000     
  185             6.950      1.050      0.000      1.050      1.000     
  408             2.755      7.545      0.000      7.545      1.000     
  246             8.900      0.800      0.000      0.800      1.000     
  250             6.054      4.746      0.000      4.746      1.000     
  318             9.700      1.100      0.000      1.100      1.000     
  236             8.900      0.800      0.000      0.800      1.000     
  240             8.160      1.840      0.000      1.840      1.000     
  317             11.000     0.800      0.000      0.800      1.000     
  251             7.945      3.755      0.000      3.755      1.000     
  84              8.788      0.912      0.000      0.912      1.000     
  259             3.167      6.533      0.000      6.533      1.000     
  488             7.500      0.800      0.000      0.800      1.000     
  198             3.917      4.883      0.000      4.883      1.000     
  296             4.634      5.366      0.000      5.366      1.000     
  485             7.350      0.950      0.000      0.950      1.000     
  291             4.465      4.335      0.000      4.335      1.000     
  215             7.230      2.070      0.000      2.070      1.000     
  235             4.807      3.993      0.000      3.993      1.000     
  217             8.000      0.800      0.000      0.800      1.000     
  141             6.222      2.478      0.000      2.478      1.000     
  166             4.129      5.171      0.000      5.171      1.000     
  262             4.404      4.896      0.000      4.896      1.000     
  129             8.600      0.800      0.000      0.800      1.000     
  136             2.358      6.942      0.000      6.942      1.000     
  303             9.600      0.800      0.000      0.800      1.000     
  387             7.200      0.800      0.000      0.800      1.000     
  45              5.849      3.551      0.000      3.551      1.000     
  34              8.189      2.611      0.000      2.611      1.000     
  229             8.200      0.800      0.000      0.800      1.000     
  385             7.400      0.900      0.000      0.900      1.000     
  121             3.797      6.003      0.000      6.003      1.000     
  302             10.400     1.300      0.000      1.300      1.000     
  116             4.478      4.922      0.000      4.922      1.000     
  407             4.150      5.150      0.000      5.150      1.000     
  96              8.469      1.631      0.000      1.631      1.000     
  293             10.900     0.800      0.000      0.800      1.000     
  196             9.100      1.000      0.000      1.000      1.000     
  465             10.800     0.900      0.000      0.900      1.000     
  1               3.284      7.516      0.000      7.516      1.000     
  247             7.610      2.090      0.000      2.090      1.000     
  307             3.135      6.865      0.000      6.865      1.000     
  81              8.950      1.050      0.000      1.050      1.000     
  275             8.598      3.102      0.000      3.102      1.000     
  83              8.886      0.814      0.000      0.814      1.000     
  180             5.864      3.836      0.000      3.836      1.000     
  426             8.800      0.900      0.000      0.900      1.000     
  451             4.100      5.600      0.000      5.600      1.000     
  199             5.013      3.287      0.000      3.287      1.000     
  267             5.483      3.317      0.000      3.317      1.000     
  484             5.489      3.311      0.000      3.311      1.000     
  431             6.510      2.290      0.000      2.290      1.000     
  234             5.467      3.333      0.000      3.333      1.000     
  220             7.697      1.603      0.000      1.603      1.000     
  142             7.900      0.800      0.000      0.800      1.000     
  140             7.900      0.800      0.000      0.800      1.000     
  165             4.602      4.698      0.000      4.698      1.000     
  329             5.440      3.860      0.000      3.860      1.000     
  261             5.612      3.688      0.000      3.688      1.000     
  266             5.438      3.862      0.000      3.862      1.000     
  130             2.746      6.554      0.000      6.554      1.000     
  427             1.481      6.519      0.000      6.519      1.000     
  414             6.605      2.795      0.000      2.795      1.000     
  214             7.314      2.086      0.000      2.086      1.000     
  416             9.850      0.950      0.000      0.950      1.000     
  119             8.900      0.900      0.000      0.900      1.000     
  16              5.575      2.425      0.000      2.425      1.000     
  349             4.126      7.574      0.000      7.574      1.000     
  108             5.231      4.069      0.000      4.069      1.000     
  28              4.999      4.301      0.000      4.301      1.000     
  85              9.136      2.564      0.000      2.564      1.000     
  12              4.656      5.644      0.000      5.644      1.000     
  8               4.274      6.526      0.000      6.526      1.000     
  270             9.200      0.800      0.000      0.800      1.000     
  312             10.900     0.800      0.000      0.800      1.000     
  202             4.622      6.178      0.000      6.178      1.000     
  80              3.038      6.662      0.000      6.662      1.000     
  319             4.266      7.434      0.000      7.434      1.000     
  271             9.934      1.766      0.000      1.766      1.000     
  425             8.900      0.800      0.000      0.800      1.000     
  260             1.705      7.595      0.000      7.595      1.000     
  181             8.500      0.800      0.000      0.800      1.000     
  447             4.733      4.567      0.000      4.567      1.000     
  363             6.606      1.694      0.000      1.694      1.000     
  435             8.600      0.800      0.000      0.800      1.000     
  297             5.632      3.168      0.000      3.168      1.000     
  432             7.500      0.800      0.000      0.800      1.000     
  231             6.604      2.696      0.000      2.696      1.000     
  233             8.000      0.800      0.000      0.800      1.000     
  174             4.133      5.567      0.000      5.567      1.000     
  146             7.200      0.800      0.000      0.800      1.000     
  160             5.259      4.541      0.000      4.541      1.000     
  164             7.184      2.116      0.000      2.116      1.000     
  257             7.900      0.800      0.000      0.800      1.000     
  452             6.849      2.451      0.000      2.451      1.000     
  330             7.900      0.800      0.000      0.800      1.000     
  462             6.219      2.481      0.000      2.481      1.000     
  339             6.590      2.110      0.000      2.110      1.000     
  131             3.805      4.895      0.000      4.895      1.000     
  53              4.059      5.241      0.000      5.241      1.000     
  227             6.315      1.685      0.000      1.685      1.000     
  415             8.400      0.900      0.000      0.900      1.000     
  112             9.050      0.950      0.000      0.950      1.000     
  60              7.657      1.643      0.000      1.643      1.000     
  15              7.200      0.800      0.000      0.800      1.000     
  473             10.800     0.900      0.000      0.900      1.000     
  278             4.933      6.367      0.000      6.367      1.000     
  394             5.724      3.576      0.000      3.576      1.000     
  23              8.600      0.800      0.000      0.800      1.000     
  20              6.157      1.843      0.000      1.843      1.000     
  94              9.471      2.229      0.000      2.229      1.000     
  19              5.500      4.800      0.000      4.800      1.000     
  110             8.755      1.545      0.000      1.545      1.000     
  6               4.692      5.608      0.000      5.608      1.000     
  204             7.481      3.319      0.000      3.319      1.000     
  79              4.144      3.856      0.000      3.856      1.000     
  320             5.197      6.503      0.000      6.503      1.000     
  248             10.800     0.900      0.000      0.900      1.000     
  264             2.287      7.013      0.000      7.013      1.000     
  179             5.365      3.935      0.000      3.935      1.000     
  82              8.250      1.050      0.000      1.050      1.000     
  362             8.000      0.800      0.000      0.800      1.000     
  300             6.479      2.921      0.000      2.921      1.000     
  481             8.000      0.800      0.000      0.800      1.000     
  232             8.500      0.800      0.000      0.800      1.000     
  66              1.833      6.967      0.000      6.967      1.000     
  178             4.725      4.975      0.000      4.975      1.000     
  221             5.052      4.648      0.000      4.648      1.000     
  230             8.000      0.800      0.000      0.800      1.000     
  159             5.819      3.981      0.000      3.981      1.000     
  161             8.500      0.800      0.000      0.800      1.000     
  162             8.500      0.800      0.000      0.800      1.000     
  256             7.900      0.800      0.000      0.800      1.000     
  340             6.918      1.782      0.000      1.782      1.000     
  258             7.900      0.800      0.000      0.800      1.000     
  124             7.900      0.800      0.000      0.800      1.000     
  54              4.441      4.259      0.000      4.259      1.000     
  59              4.698      4.602      0.000      4.602      1.000     
  139             6.306      2.394      0.000      2.394      1.000     
  419             7.200      0.800      0.000      0.800      1.000     
  33              8.350      0.950      0.000      0.950      1.000     
  277             5.271      6.029      0.000      6.029      1.000     
  105             6.367      3.433      0.000      3.433      1.000     
  75              7.100      0.900      0.000      0.900      1.000     
  358             9.873      1.827      0.000      1.827      1.000     
  392             9.400      0.900      0.000      0.900      1.000     
  13              8.450      0.950      0.000      0.950      1.000     
  168             6.206      4.094      0.000      4.094      1.000     
  398             6.633      2.767      0.000      2.767      1.000     
  203             10.000     0.800      0.000      0.800      1.000     
  175             7.200      0.800      0.000      0.800      1.000     
  225             7.065      2.235      0.000      2.235      1.000     
  321             6.162      5.638      0.000      5.638      1.000     
  327             2.630      6.670      0.000      6.670      1.000     
  255             6.008      3.292      0.000      3.292      1.000     
  469             7.900      0.900      0.000      0.900      1.000     
  244             5.222      4.078      0.000      4.078      1.000     
  62              2.590      6.710      0.000      6.710      1.000     
  78              9.100      0.900      0.000      0.900      1.000     
  245             6.059      3.641      0.000      3.641      1.000     
  158             7.232      2.568      0.000      2.568      1.000     
  30              8.500      0.800      0.000      0.800      1.000     
  311             7.800      0.900      0.000      0.900      1.000     
  155             7.800      0.900      0.000      0.900      1.000     
  52              5.140      3.560      0.000      3.560      1.000     
  58              5.195      4.105      0.000      4.105      1.000     
  409             7.900      0.800      0.000      0.800      1.000     
  420             4.748      3.552      0.000      3.552      1.000     
  341             6.240      5.460      0.000      5.460      1.000     
  343             10.900     0.800      0.000      0.800      1.000     
  120             8.400      0.900      0.000      0.900      1.000     
  365             10.200     1.500      0.000      1.500      1.000     
  123             6.865      2.435      0.000      2.435      1.000     
  399             8.500      0.800      0.000      0.800      1.000     
  226             8.500      0.800      0.000      0.800      1.000     
  497             7.200      0.800      0.000      0.800      1.000     
  328             2.957      6.343      0.000      6.343      1.000     
  326             6.899      2.401      0.000      2.401      1.000     
  242             6.262      3.038      0.000      3.038      1.000     
  35              4.380      4.920      0.000      4.920      1.000     
  243             7.161      2.539      0.000      2.539      1.000     
  422             9.200      0.800      0.000      0.800      1.000     
  423             6.754      2.946      0.000      2.946      1.000     
  403             8.500      0.800      0.000      0.800      1.000     
  127             6.150      2.550      0.000      2.550      1.000     
  171             7.132      1.568      0.000      1.568      1.000     
  135             8.000      1.300      0.000      1.300      1.000     
  222             6.505      2.495      0.000      2.495      1.000     
  347             6.608      5.092      0.000      5.092      1.000     
  195             4.494      7.206      0.000      7.206      1.000     
  368             6.384      3.716      0.000      3.716      1.000     
  103             8.250      1.050      0.000      1.050      1.000     
  118             8.500      0.800      0.000      0.800      1.000     
  265             8.500      0.800      0.000      0.800      1.000     
  190             8.500      0.800      0.000      0.800      1.000     
  309             3.303      5.397      0.000      5.397      1.000     
  238             8.500      0.800      0.000      0.800      1.000     
  48              5.642      4.158      0.000      4.158      1.000     
  177             7.165      2.535      0.000      2.535      1.000     
  239             8.500      0.800      0.000      0.800      1.000     
  218             9.100      0.900      0.000      0.900      1.000     
  71              7.654      2.346      0.000      2.346      1.000     
  126             6.872      1.828      0.000      1.828      1.000     
  170             7.900      0.800      0.000      0.800      1.000     
  43              1.720      6.980      0.000      6.980      1.000     
  114             8.200      0.800      0.000      0.800      1.000     
  348             7.213      4.487      0.000      4.487      1.000     
  194             5.028      6.672      0.000      6.672      1.000     
  97              6.890      3.210      0.000      3.210      1.000     
  197             9.300      0.800      0.000      0.800      1.000     
  448             7.800      0.900      0.000      0.900      1.000     
  310             3.508      5.192      0.000      5.192      1.000     
  49              6.372      3.628      0.000      3.628      1.000     
  176             8.500      0.800      0.000      0.800      1.000     
  5               8.800      1.200      0.000      1.200      1.000     
  125             7.800      0.900      0.000      0.900      1.000     
  46              1.881      6.819      0.000      6.819      1.000     
  282             7.845      3.855      0.000      3.855      1.000     
  182             9.917      1.783      0.000      1.783      1.000     
  357             6.008      5.692      0.000      5.692      1.000     
  101             1.313      6.687      0.000      6.687      1.000     
  369             7.604      2.496      0.000      2.496      1.000     
  313             4.288      6.912      0.000      6.912      1.000     
  36              7.825      1.975      0.000      1.975      1.000     
  3               3.576      6.424      0.000      6.424      1.000     
  42              2.043      6.657      0.000      6.657      1.000     
  470             10.500     0.800      0.000      0.800      1.000     
  286             3.349      6.751      0.000      6.751      1.000     
  468             9.521      2.179      0.000      2.179      1.000     
  280             10.800     0.900      0.000      0.900      1.000     
  360             6.735      4.965      0.000      4.965      1.000     
  374             7.200      0.800      0.000      0.800      1.000     
  285             4.485      5.615      0.000      5.615      1.000     
  366             9.604      2.096      0.000      2.096      1.000     
  375             0.844      7.156      0.000      7.156      1.000     
  99              1.777      6.523      0.000      6.523      1.000     
  314             4.405      6.795      0.000      6.795      1.000     
  37              9.100      0.900      0.000      0.900      1.000     
  4               5.195      4.805      0.000      4.805      1.000     
  41              3.248      5.452      0.000      5.452      1.000     
  283             10.500     0.800      0.000      0.800      1.000     
  156             9.100      1.000      0.000      1.000      1.000     
  295             4.169      3.831      0.000      3.831      1.000     
  350             9.300      0.800      0.000      0.800      1.000     
  342             8.123      3.577      0.000      3.577      1.000     
  359             10.900     0.800      0.000      0.800      1.000     
  294             2.307      5.693      0.000      5.693      1.000     
  281             5.194      6.106      0.000      6.106      1.000     
  487             2.729      5.571      0.000      5.571      1.000     
  324             5.008      6.192      0.000      6.192      1.000     
  50              6.195      3.805      0.000      3.805      1.000     
  7               7.389      1.911      0.000      1.911      1.000     
  133             4.100      5.700      0.000      5.700      1.000     
  352             4.961      3.039      0.000      3.039      1.000     
  475             1.684      6.316      0.000      6.316      1.000     
  344             9.300      0.800      0.000      0.800      1.000     
  279             5.765      5.535      0.000      5.535      1.000     
  370             3.541      5.259      0.000      5.259      1.000     
  494             3.687      4.313      0.000      4.313      1.000     
  325             5.894      5.806      0.000      5.806      1.000     
  323             10.500     1.200      0.000      1.200      1.000     
  109             7.284      2.016      0.000      2.016      1.000     
  2               8.450      0.950      0.000      0.950      1.000     
  132             4.755      5.045      0.000      5.045      1.000     
  402             9.100      0.900      0.000      0.900      1.000     
  346             5.831      2.169      0.000      2.169      1.000     
  351             6.571      1.729      0.000      1.729      1.000     
  476             2.173      5.827      0.000      5.827      1.000     
  467             6.351      4.949      0.000      4.949      1.000     
  288             4.580      3.720      0.000      3.720      1.000     
  356             4.697      3.603      0.000      3.603      1.000     
  189             6.538      5.162      0.000      5.162      1.000     
  457             3.791      7.409      0.000      7.409      1.000     
  336             6.464      5.236      0.000      5.236      1.000     
  22              8.500      0.900      0.000      0.900      1.000     
  134             8.500      0.800      0.000      0.800      1.000     
  55              5.487      3.813      0.000      3.813      1.000     
  345             7.500      0.800      0.000      0.800      1.000     
  479             8.000      0.800      0.000      0.800      1.000     
  364             7.200      0.800      0.000      0.800      1.000     
  477             3.312      4.988      0.000      4.988      1.000     
  353             8.003      3.297      0.000      3.297      1.000     
  466             6.900      1.100      0.000      1.100      1.000     