[TITLE]
;;Project Title/Notes

[OPTIONS]
;;Option             Value
FLOW_UNITS           LPS
INFILTRATION         HORTON
FLOW_ROUTING         DYNWAVE
LINK_OFFSETS         DEPTH
MIN_SLOPE            0
ALLOW_PONDING        NO
SKIP_STEADY_STATE    NO

START_DATE           03/01/2021
START_TIME           00:00:00
REPORT_START_DATE    03/01/2021
REPORT_START_TIME    00:00:00
END_DATE             03/01/2021
END_TIME             08:00:00
SWEEP_START          01/01
SWEEP_END            12/31
DRY_DAYS             0
REPORT_STEP          00:05:00
WET_STEP             00:01:00
DRY_STEP             01:00:00
ROUTING_STEP         0:00:15 
RULE_STEP            00:00:00

INERTIAL_DAMPING     PARTIAL
NORMAL_FLOW_LIMITED  BOTH
FORCE_MAIN_EQUATION  H-W
VARIABLE_STEP        0.75
LENGTHENING_STEP     0
MIN_SURFAREA         12.566
MAX_TRIALS           8
HEAD_TOLERANCE       0.005
SYS_FLOW_TOL         5
LAT_FLOW_TOL         5
MINIMUM_STEP         0.5
THREADS              2

[REPORT]
;;Reporting Options
SUBCATCHMENTS NONE
NODES NONE
LINKS NONE

  [JUNCTIONS] 
;;Name            Elevation  (MaxDepth  InitDepth  SurDepth   Aponded)  
  184_WWTP        8.500      0.900      0.000      0.900      1.000     
  207_WWTP        7.050      0.950      0.000      0.950      1.000     
  315_WWTP        10.600     1.200      0.000      1.200      1.000     
  305_WWTP        4.001      3.999      0.000      3.999      1.000     
  471_WWTP        7.396      3.904      0.000      3.904      1.000     
  64_WWTP         6.400      1.600      0.000      1.600      1.000     
  147_WWTP        6.332      2.368      0.000      2.368      1.000     
  446_WWTP        9.871      1.829      0.000      1.829      1.000     
  380             5.531      4.269      0.000      4.269      1.000     
  431             5.382      3.418      0.000      3.418      1.000     
  104             3.877      5.523      0.000      5.523      1.000     
  398             7.005      2.395      0.000      2.395      1.000     
  269             5.382      6.418      0.000      6.418      1.000     
  410             8.450      0.950      0.000      0.950      1.000     
  480             5.773      2.227      0.000      2.227      1.000     
  331             6.969      4.831      0.000      4.831      1.000     
  188             7.604      4.196      0.000      4.196      1.000     
  308             4.118      5.182      0.000      5.182      1.000     
  198             6.412      2.388      0.000      2.388      1.000     
  300             5.361      4.039      0.000      4.039      1.000     
  87              8.600      0.800      0.000      0.800      1.000     
  66              2.307      6.493      0.000      6.493      1.000     
  31              3.879      5.421      0.000      5.421      1.000     
  258             7.900      0.800      0.000      0.800      1.000     
  461             4.662      4.038      0.000      4.038      1.000     
  323             10.400     1.300      0.000      1.300      1.000     
  456             5.631      6.069      0.000      6.069      1.000     
  283             7.236      4.064      0.000      4.064      1.000     
  470             8.264      3.036      0.000      3.036      1.000     
  65              0.462      7.538      0.000      7.538      1.000     
  387             1.104      6.896      0.000      6.896      1.000     
  373             5.176      2.824      0.000      2.824      1.000     
  301             7.200      0.800      0.000      0.800      1.000     
  396             7.700      1.000      0.000      1.000      1.000     
  395             6.374      3.426      0.000      3.426      1.000     
  291             5.588      3.212      0.000      3.212      1.000     
  117             4.390      3.610      0.000      3.610      1.000     
  399             8.350      0.950      0.000      0.950      1.000     
  208             7.937      3.863      0.000      3.863      1.000     
  88              11.000     0.800      0.000      0.800      1.000     
  284             6.500      1.500      0.000      1.500      1.000     
  482             7.200      0.800      0.000      0.800      1.000     
  464             8.235      3.565      0.000      3.565      1.000     
  455             7.680      4.020      0.000      4.020      1.000     
  89              4.554      4.746      0.000      4.746      1.000     
  362             8.000      0.800      0.000      0.800      1.000     
  297             6.479      2.321      0.000      2.321      1.000     
  62              2.783      6.517      0.000      6.517      1.000     
  160             4.679      5.121      0.000      5.121      1.000     
  30              4.453      4.847      0.000      4.847      1.000     
  148             5.385      3.315      0.000      3.315      1.000     
  154             10.800     0.900      0.000      0.900      1.000     
  336             6.314      5.386      0.000      5.386      1.000     
  457             3.666      7.534      0.000      7.534      1.000     
  468             10.900     0.800      0.000      0.800      1.000     
  433             7.939      3.361      0.000      3.361      1.000     
  156             8.800      1.300      0.000      1.300      1.000     
  143             1.396      6.604      0.000      6.604      1.000     
  47              1.614      6.386      0.000      6.386      1.000     
  486             7.100      0.900      0.000      0.900      1.000     
  372             6.034      2.766      0.000      2.766      1.000     
  401             6.878      2.922      0.000      2.922      1.000     
  469             7.900      0.900      0.000      0.900      1.000     
  211             6.357      1.943      0.000      1.943      1.000     
  118             4.873      4.427      0.000      4.427      1.000     
  400             5.987      2.013      0.000      2.013      1.000     
  96              8.700      1.400      0.000      1.400      1.000     
  210             9.404      2.396      0.000      2.396      1.000     
  436             3.054      7.046      0.000      7.046      1.000     
  212             9.447      2.353      0.000      2.353      1.000     
  334             9.504      2.296      0.000      2.296      1.000     
  316             9.100      1.000      0.000      1.000      1.000     
  193             8.210      3.490      0.000      3.490      1.000     
  247             5.699      4.001      0.000      4.001      1.000     
  484             8.000      0.800      0.000      0.800      1.000     
  481             8.000      0.800      0.000      0.800      1.000     
  35              5.379      3.921      0.000      3.921      1.000     
  423             3.159      6.541      0.000      6.541      1.000     
  161             8.500      0.800      0.000      0.800      1.000     
  165             5.584      3.716      0.000      3.716      1.000     
  403             7.900      1.400      0.000      1.400      1.000     
  17              6.446      1.554      0.000      1.554      1.000     
  149             7.900      0.800      0.000      0.800      1.000     
  337             7.902      3.298      0.000      3.298      1.000     
  332             10.650     1.050      0.000      1.050      1.000     
  313             7.789      3.411      0.000      3.411      1.000     
  152             4.540      6.660      0.000      6.660      1.000     
  278             8.222      3.078      0.000      3.078      1.000     
  286             4.291      5.809      0.000      5.809      1.000     
  475             0.913      7.087      0.000      7.087      1.000     
  217             5.508      3.292      0.000      3.292      1.000     
  150             2.251      5.749      0.000      5.749      1.000     
  128             8.600      0.800      0.000      0.800      1.000     
  415             2.455      6.845      0.000      6.845      1.000     
  304             7.900      0.900      0.000      0.900      1.000     
  371             7.818      2.582      0.000      2.582      1.000     
  106             8.850      0.950      0.000      0.950      1.000     
  119             7.229      2.571      0.000      2.571      1.000     
  485             7.350      0.950      0.000      0.950      1.000     
  173             0.912      7.388      0.000      7.388      1.000     
  13              8.300      1.100      0.000      1.100      1.000     
  123             5.497      3.803      0.000      3.803      1.000     
  74              6.332      1.668      0.000      1.668      1.000     
  206             10.600     1.200      0.000      1.200      1.000     
  442             4.852      3.148      0.000      3.148      1.000     
  85              10.300     1.400      0.000      1.400      1.000     
  292             10.900     0.900      0.000      0.900      1.000     
  338             10.900     0.800      0.000      0.800      1.000     
  192             11.000     0.800      0.000      0.800      1.000     
  189             8.857      2.843      0.000      2.843      1.000     
  459             4.651      7.049      0.000      7.049      1.000     
  270             6.206      3.794      0.000      3.794      1.000     
  41              7.800      0.900      0.000      0.900      1.000     
  71              3.523      6.477      0.000      6.477      1.000     
  48              7.597      2.203      0.000      2.203      1.000     
  164             6.074      3.226      0.000      3.226      1.000     
  166             8.500      0.800      0.000      0.800      1.000     
  158             8.600      1.200      0.000      1.200      1.000     
  404             6.797      1.203      0.000      1.203      1.000     
  333             9.300      0.800      0.000      0.800      1.000     
  458             4.722      5.378      0.000      5.378      1.000     
  310             3.768      4.932      0.000      4.932      1.000     
  441             7.000      1.000      0.000      1.000      1.000     
  314             8.607      2.593      0.000      2.593      1.000     
  349             9.195      2.505      0.000      2.505      1.000     
  277             10.500     0.800      0.000      0.800      1.000     
  282             5.559      6.141      0.000      6.141      1.000     
  295             5.693      2.307      0.000      2.307      1.000     
  476             1.403      6.597      0.000      6.597      1.000     
  70              8.000      0.800      0.000      0.800      1.000     
  146             3.393      4.607      0.000      4.607      1.000     
  33              3.479      5.821      0.000      5.821      1.000     
  303             9.600      0.800      0.000      0.800      1.000     
  121             8.900      0.900      0.000      0.900      1.000     
  14              1.287      6.713      0.000      6.713      1.000     
  413             1.370      6.930      0.000      6.930      1.000     
  183             8.000      0.800      0.000      0.800      1.000     
  103             5.970      3.330      0.000      3.330      1.000     
  73              7.604      1.796      0.000      1.796      1.000     
  407             1.863      7.437      0.000      7.437      1.000     
  200             6.727      3.373      0.000      3.373      1.000     
  209             5.699      6.101      0.000      6.101      1.000     
  497             5.736      2.264      0.000      2.264      1.000     
  94              4.460      7.240      0.000      7.240      1.000     
  466             7.200      0.800      0.000      0.800      1.000     
  293             7.395      4.305      0.000      4.305      1.000     
  490             4.746      5.254      0.000      5.254      1.000     
  325             10.900     0.800      0.000      0.800      1.000     
  322             10.900     0.800      0.000      0.800      1.000     
  465             4.849      6.851      0.000      6.851      1.000     
  187             9.999      1.701      0.000      1.701      1.000     
  271             7.281      4.419      0.000      4.419      1.000     
  219             4.208      6.692      0.000      6.692      1.000     
  390             8.500      0.800      0.000      0.800      1.000     
  5               8.700      1.300      0.000      1.300      1.000     
  159             9.000      0.800      0.000      0.800      1.000     
  170             7.032      1.668      0.000      1.668      1.000     
  162             2.084      7.216      0.000      7.216      1.000     
  18              7.200      0.800      0.000      0.800      1.000     
  153             5.288      4.812      0.000      4.812      1.000     
  309             6.685      2.015      0.000      2.015      1.000     
  330             4.285      4.415      0.000      4.415      1.000     
  324             10.400     0.800      0.000      0.800      1.000     
  473             10.800     0.900      0.000      0.900      1.000     
  348             6.115      5.585      0.000      5.585      1.000     
  496             7.200      0.800      0.000      0.800      1.000     
  477             2.541      5.759      0.000      5.759      1.000     
  234             4.012      4.788      0.000      4.788      1.000     
  60              3.930      5.370      0.000      5.370      1.000     
  24              1.841      6.859      0.000      6.859      1.000     
  77              2.190      6.610      0.000      6.610      1.000     
  392             6.585      3.715      0.000      3.715      1.000     
  116             8.300      1.100      0.000      1.100      1.000     
  28              2.556      6.744      0.000      6.744      1.000     
  205             9.300      0.800      0.000      0.800      1.000     
  353             7.903      3.397      0.000      3.397      1.000     
  474             7.200      0.800      0.000      0.800      1.000     
  472             9.300      0.800      0.000      0.800      1.000     
  95              5.021      6.679      0.000      6.679      1.000     
  367             8.312      1.788      0.000      1.788      1.000     
  445             6.700      1.300      0.000      1.300      1.000     
  491             6.245      3.755      0.000      3.755      1.000     
  185             7.200      0.800      0.000      0.800      1.000     
  343             10.900     0.800      0.000      0.800      1.000     
  454             10.800     0.900      0.000      0.900      1.000     
  275             7.913      3.787      0.000      3.787      1.000     
  218             5.446      4.554      0.000      4.554      1.000     
  253             5.611      5.289      0.000      5.289      1.000     
  3               3.096      6.904      0.000      6.904      1.000     
  171             7.900      0.800      0.000      0.800      1.000     
  163             2.667      6.033      0.000      6.033      1.000     
  437             7.971      3.729      0.000      3.729      1.000     
  448             7.800      0.900      0.000      0.900      1.000     
  449             9.592      1.608      0.000      1.608      1.000     
  340             4.883      3.817      0.000      3.817      1.000     
  347             6.573      5.127      0.000      5.127      1.000     
  478             3.080      5.220      0.000      5.220      1.000     
  231             8.500      0.800      0.000      0.800      1.000     
  233             5.953      2.847      0.000      2.847      1.000     
  235             4.671      4.129      0.000      4.129      1.000     
  414             4.388      5.012      0.000      5.012      1.000     
  26              3.004      5.696      0.000      5.696      1.000     
  27              3.360      4.640      0.000      4.640      1.000     
  86              3.547      5.853      0.000      5.853      1.000     
  110             7.062      3.238      0.000      3.238      1.000     
  498             2.727      6.573      0.000      6.573      1.000     
  20              7.100      0.900      0.000      0.900      1.000     
  406             3.008      6.292      0.000      6.292      1.000     
  354             9.300      0.800      0.000      0.800      1.000     
  281             10.500     0.800      0.000      0.800      1.000     
  97              5.738      4.362      0.000      4.362      1.000     
  196             9.150      0.950      0.000      0.950      1.000     
  319             8.727      2.973      0.000      2.973      1.000     
  467             9.235      2.065      0.000      2.065      1.000     
  100             8.045      3.755      0.000      3.755      1.000     
  276             8.477      3.223      0.000      3.223      1.000     
  78              8.800      1.200      0.000      1.200      1.000     
  240             6.714      3.286      0.000      3.286      1.000     
  10              6.892      4.008      0.000      4.008      1.000     
  4               4.310      5.690      0.000      5.690      1.000     
  55              3.560      5.740      0.000      5.740      1.000     
  302             10.900     0.800      0.000      0.800      1.000     
  463             10.900     0.800      0.000      0.800      1.000     
  462             7.900      0.800      0.000      0.800      1.000     
  155             5.444      3.256      0.000      3.256      1.000     
  341             6.855      4.845      0.000      4.845      1.000     
  157             3.493      4.807      0.000      4.807      1.000     
  145             7.200      0.800      0.000      0.800      1.000     
  216             5.410      3.390      0.000      3.390      1.000     
  112             4.835      5.165      0.000      5.165      1.000     
  25              3.986      4.714      0.000      4.714      1.000     
  126             4.277      4.423      0.000      4.423      1.000     
  430             4.377      5.623      0.000      5.623      1.000     
  12              8.356      1.944      0.000      1.944      1.000     
  168             9.500      0.800      0.000      0.800      1.000     
  122             3.753      5.547      0.000      5.547      1.000     
  8               9.600      1.200      0.000      1.200      1.000     
  167             3.696      5.604      0.000      5.604      1.000     
  101             6.388      1.612      0.000      1.612      1.000     
  368             7.783      2.317      0.000      2.317      1.000     
  369             7.842      2.258      0.000      2.258      1.000     
  312             10.600     1.100      0.000      1.100      1.000     
  320             9.986      1.714      0.000      1.714      1.000     
  279             10.011     1.289      0.000      1.289      1.000     
  492             9.701      2.099      0.000      2.099      1.000     
  252             4.661      7.039      0.000      7.039      1.000     
  272             10.900     0.900      0.000      0.900      1.000     
  236             8.900      0.800      0.000      0.800      1.000     
  241             8.179      2.721      0.000      2.721      1.000     
  81              2.342      7.658      0.000      7.658      1.000     
  221             2.658      7.042      0.000      7.042      1.000     
  421             8.061      2.839      0.000      2.839      1.000     
  7               5.018      4.282      0.000      4.282      1.000     
  57              4.629      4.671      0.000      4.671      1.000     
  56              6.164      3.136      0.000      3.136      1.000     
  439             6.366      2.334      0.000      2.334      1.000     
  342             7.317      4.383      0.000      4.383      1.000     
  287             4.408      3.892      0.000      3.892      1.000     
  215             6.650      2.650      0.000      2.650      1.000     
  69              8.000      0.800      0.000      0.800      1.000     
  38              5.266      4.734      0.000      4.734      1.000     
  15              5.575      2.425      0.000      2.425      1.000     
  125             4.762      3.938      0.000      3.938      1.000     
  296             4.711      5.289      0.000      5.289      1.000     
  19              9.400      0.900      0.000      0.900      1.000     
  120             6.496      2.804      0.000      2.804      1.000     
  108             7.047      2.253      0.000      2.253      1.000     
  1               3.239      7.561      0.000      7.561      1.000     
  76              4.942      3.058      0.000      3.058      1.000     
  405             7.590      1.710      0.000      1.710      1.000     
  365             9.383      2.317      0.000      2.317      1.000     
  285             9.300      0.800      0.000      0.800      1.000     
  366             10.900     0.800      0.000      0.800      1.000     
  440             3.260      4.740      0.000      4.740      1.000     
  99              6.633      1.667      0.000      1.667      1.000     
  321             10.900     0.900      0.000      0.900      1.000     
  359             10.800     0.900      0.000      0.900      1.000     
  306             11.000     0.800      0.000      0.800      1.000     
  335             5.704      6.096      0.000      6.096      1.000     
  251             8.233      3.467      0.000      3.467      1.000     
  237             9.100      0.900      0.000      0.900      1.000     
  80              2.874      6.826      0.000      6.826      1.000     
  174             3.277      6.423      0.000      6.423      1.000     
  9               8.900      1.100      0.000      1.100      1.000     
  2               8.450      0.950      0.000      0.950      1.000     
  109             6.216      3.084      0.000      3.084      1.000     
  134             6.466      2.834      0.000      2.834      1.000     
  169             7.800      0.900      0.000      0.900      1.000     
  133             7.313      2.487      0.000      2.487      1.000     
  311             7.900      0.800      0.000      0.800      1.000     
  360             7.825      3.875      0.000      3.875      1.000     
  268             5.993      2.307      0.000      2.307      1.000     
  479             5.510      3.290      0.000      3.290      1.000     
  220             8.500      0.800      0.000      0.800      1.000     
  232             8.500      0.800      0.000      0.800      1.000     
  34              8.089      2.711      0.000      2.711      1.000     
  45              6.678      2.722      0.000      2.722      1.000     
  113             8.700      1.300      0.000      1.300      1.000     
  16              7.200      0.800      0.000      0.800      1.000     
  140             5.293      3.407      0.000      3.407      1.000     
  213             6.538      3.462      0.000      3.462      1.000     
  267             5.333      3.467      0.000      3.467      1.000     
  105             9.000      0.800      0.000      0.800      1.000     
  394             8.500      0.800      0.000      0.800      1.000     
  408             4.198      6.102      0.000      6.102      1.000     
  75              7.200      0.800      0.000      0.800      1.000     
  102             8.500      0.800      0.000      0.800      1.000     
  195             10.900     0.800      0.000      0.800      1.000     
  202             4.422      6.378      0.000      6.378      1.000     
  487             7.196      1.104      0.000      1.104      1.000     
  248             10.900     0.800      0.000      0.800      1.000     
  92              9.660      2.040      0.000      2.040      1.000     
  93              7.022      4.778      0.000      4.778      1.000     
  79              3.444      4.556      0.000      4.556      1.000     
  178             4.003      5.697      0.000      5.697      1.000     
  226             2.735      6.565      0.000      6.565      1.000     
  22              7.214      2.186      0.000      2.186      1.000     
  50              2.517      7.483      0.000      7.483      1.000     
  42              7.900      0.800      0.000      0.800      1.000     
  132             9.000      0.800      0.000      0.800      1.000     
  402             9.100      0.900      0.000      0.900      1.000     
  361             3.045      7.055      0.000      7.055      1.000     
  357             8.627      3.073      0.000      3.073      1.000     
  351             6.629      1.671      0.000      1.671      1.000     
  151             7.500      0.800      0.000      0.800      1.000     
  63              2.459      7.541      0.000      7.541      1.000     
  416             9.850      0.950      0.000      0.950      1.000     
  214             8.500      0.900      0.000      0.900      1.000     
  141             5.814      2.886      0.000      2.886      1.000     
  411             8.500      0.900      0.000      0.900      1.000     
  299             7.900      0.900      0.000      0.900      1.000     
  435             8.600      0.800      0.000      0.800      1.000     
  111             5.308      4.992      0.000      4.992      1.000     
  307             8.156      1.844      0.000      1.844      1.000     
  204             7.481      3.319      0.000      3.319      1.000     
  370             4.813      3.987      0.000      3.987      1.000     
  90              10.800     0.900      0.000      0.900      1.000     
  91              8.973      2.827      0.000      2.827      1.000     
  175             5.582      2.418      0.000      2.418      1.000     
  82              4.189      5.111      0.000      5.111      1.000     
  244             4.551      4.749      0.000      4.749      1.000     
  177             5.692      4.008      0.000      4.008      1.000     
  225             8.500      0.800      0.000      0.800      1.000     
  246             3.913      5.787      0.000      5.787      1.000     
  21              8.500      0.900      0.000      0.900      1.000     
  37              3.780      6.220      0.000      6.220      1.000     
  344             4.567      5.533      0.000      5.533      1.000     
  280             10.800     0.900      0.000      0.900      1.000     
  194             9.557      2.143      0.000      2.143      1.000     
  197             3.962      6.138      0.000      6.138      1.000     
  345             7.500      0.800      0.000      0.800      1.000     
  67              8.500      0.900      0.000      0.900      1.000     
  114             3.954      5.046      0.000      5.046      1.000     
  138             6.337      2.363      0.000      2.363      1.000     
  172             6.115      4.185      0.000      4.185      1.000     
  318             9.900      0.900      0.000      0.900      1.000     
  203             10.000     0.800      0.000      0.800      1.000     
  288             2.279      6.021      0.000      6.021      1.000     
  98              6.497      2.303      0.000      2.303      1.000     
  317             11.000     0.800      0.000      0.800      1.000     
  176             8.400      0.900      0.000      0.900      1.000     
  424             7.200      0.800      0.000      0.800      1.000     
  83              7.291      2.409      0.000      2.409      1.000     
  447             4.903      4.397      0.000      4.397      1.000     
  243             6.528      3.172      0.000      3.172      1.000     
  242             5.591      3.709      0.000      3.709      1.000     
  254             4.501      5.199      0.000      5.199      1.000     
  36              5.532      4.268      0.000      4.268      1.000     
  182             10.900     0.800      0.000      0.800      1.000     
  495             4.850      3.150      0.000      3.150      1.000     
  350             5.337      4.763      0.000      4.763      1.000     
  222             4.580      4.420      0.000      4.420      1.000     
  115             6.834      2.466      0.000      2.466      1.000     
  137             8.500      0.800      0.000      0.800      1.000     
  139             6.850      1.850      0.000      1.850      1.000     
  29              7.202      2.198      0.000      2.198      1.000     
  289             3.093      5.207      0.000      5.207      1.000     
  355             7.500      0.800      0.000      0.800      1.000     
  489             8.000      0.800      0.000      0.800      1.000     
  84              8.788      0.912      0.000      0.912      1.000     
  425             8.900      0.800      0.000      0.800      1.000     
  451             8.900      0.800      0.000      0.800      1.000     
  179             5.416      3.884      0.000      3.884      1.000     
  239             8.500      0.800      0.000      0.800      1.000     
  245             7.579      2.121      0.000      2.121      1.000     
  238             6.544      2.756      0.000      2.756      1.000     
  273             5.918      4.882      0.000      4.882      1.000     
  49              9.200      0.800      0.000      0.800      1.000     
  352             6.429      1.571      0.000      1.571      1.000     
  364             7.200      0.800      0.000      0.800      1.000     
  199             6.036      2.264      0.000      2.264      1.000     
  51              8.400      0.900      0.000      0.900      1.000     
  229             8.200      0.800      0.000      0.800      1.000     
  420             5.177      3.123      0.000      3.123      1.000     
  142             7.400      1.300      0.000      1.300      1.000     