[TITLE]
;;Project Title/Notes

[OPTIONS]
;;Option             Value
FLOW_UNITS           LPS
INFILTRATION         HORTON
FLOW_ROUTING         DYNWAVE
LINK_OFFSETS         DEPTH
MIN_SLOPE            0
ALLOW_PONDING        NO
SKIP_STEADY_STATE    NO

START_DATE           03/01/2021
START_TIME           00:00:00
REPORT_START_DATE    03/01/2021
REPORT_START_TIME    00:00:00
END_DATE             03/01/2021
END_TIME             08:00:00
SWEEP_START          01/01
SWEEP_END            12/31
DRY_DAYS             0
REPORT_STEP          00:05:00
WET_STEP             00:01:00
DRY_STEP             01:00:00
ROUTING_STEP         0:00:15 
RULE_STEP            00:00:00

INERTIAL_DAMPING     PARTIAL
NORMAL_FLOW_LIMITED  BOTH
FORCE_MAIN_EQUATION  H-W
VARIABLE_STEP        0.75
LENGTHENING_STEP     0
MIN_SURFAREA         12.566
MAX_TRIALS           8
HEAD_TOLERANCE       0.005
SYS_FLOW_TOL         5
LAT_FLOW_TOL         5
MINIMUM_STEP         0.5
THREADS              2

[REPORT]
;;Reporting Options
SUBCATCHMENTS NONE
NODES NONE
LINKS NONE

  [JUNCTIONS] 
;;Name            Elevation  (MaxDepth  InitDepth  SurDepth   Aponded)  
  147_WWTP        7.650      1.050      0.000      1.050      1.000     
  305_WWTP        4.001      3.999      0.000      3.999      1.000     
  64_WWTP         4.241      3.759      0.000      3.759      1.000     
  207_WWTP        4.145      3.855      0.000      3.855      1.000     
  417_WWTP        7.502      3.398      0.000      3.398      1.000     
  429_WWTP        7.321      4.479      0.000      4.479      1.000     
  167_WWTP        5.884      3.416      0.000      3.416      1.000     
  184_WWTP        8.400      1.000      0.000      1.000      1.000     
  471_WWTP        7.736      3.564      0.000      3.564      1.000     
  443_WWTP        7.000      1.000      0.000      1.000      1.000     
  446_WWTP        9.739      1.961      0.000      1.961      1.000     
  32_WWTP         7.900      1.400      0.000      1.400      1.000     
  380             2.384      7.416      0.000      7.416      1.000     
  431             1.793      7.007      0.000      7.007      1.000     
  228             5.123      2.877      0.000      2.877      1.000     
  68              5.819      2.981      0.000      2.981      1.000     
  103             2.497      6.803      0.000      6.803      1.000     
  398             7.365      2.035      0.000      2.035      1.000     
  153             9.200      0.900      0.000      0.900      1.000     
  377             5.749      2.251      0.000      2.251      1.000     
  269             4.635      7.165      0.000      7.165      1.000     
  292             7.580      4.220      0.000      4.220      1.000     
  416             9.850      0.950      0.000      0.950      1.000     
  219             9.400      1.500      0.000      1.500      1.000     
  10              8.295      2.605      0.000      2.605      1.000     
  5               5.661      4.339      0.000      4.339      1.000     
  480             7.200      0.800      0.000      0.800      1.000     
  410             4.340      5.060      0.000      5.060      1.000     
  201             2.578      5.422      0.000      5.422      1.000     
  76              7.200      0.800      0.000      0.800      1.000     
  29              6.593      2.807      0.000      2.807      1.000     
  405             8.500      0.800      0.000      0.800      1.000     
  188             11.000     0.800      0.000      0.800      1.000     
  308             3.766      5.534      0.000      5.534      1.000     
  198             6.412      2.388      0.000      2.388      1.000     
  87              5.879      3.521      0.000      3.521      1.000     
  25              6.028      2.672      0.000      2.672      1.000     
  31              3.354      5.946      0.000      5.946      1.000     
  258             3.108      5.592      0.000      5.592      1.000     
  144             7.200      0.800      0.000      0.800      1.000     
  456             5.771      5.929      0.000      5.929      1.000     
  323             10.100     1.600      0.000      1.600      1.000     
  470             10.500     0.800      0.000      0.800      1.000     
  283             7.590      3.710      0.000      3.710      1.000     
  473             7.447      4.253      0.000      4.253      1.000     
  65              4.768      3.232      0.000      3.232      1.000     
  387             3.350      4.650      0.000      4.650      1.000     
  301             7.200      0.800      0.000      0.800      1.000     
  373             3.422      4.578      0.000      4.578      1.000     
  107             3.240      4.760      0.000      4.760      1.000     
  395             5.829      3.971      0.000      3.971      1.000     
  291             2.090      6.710      0.000      6.710      1.000     
  223             5.359      2.641      0.000      2.641      1.000     
  69              8.000      0.800      0.000      0.800      1.000     
  46              1.596      7.104      0.000      7.104      1.000     
  123             2.835      6.465      0.000      6.465      1.000     
  399             8.300      1.000      0.000      1.000      1.000     
  154             10.800     0.900      0.000      0.900      1.000     
  441             7.000      1.000      0.000      1.000      1.000     
  208             6.907      4.893      0.000      4.893      1.000     
  284             6.500      1.500      0.000      1.500      1.000     
  490             7.893      2.107      0.000      2.107      1.000     
  253             9.900      1.000      0.000      1.000      1.000     
  421             6.607      4.293      0.000      4.293      1.000     
  218             2.958      7.042      0.000      7.042      1.000     
  71              9.200      0.800      0.000      0.800      1.000     
  3               9.200      0.800      0.000      0.800      1.000     
  213             5.039      4.961      0.000      4.961      1.000     
  205             5.643      4.457      0.000      4.457      1.000     
  172             7.547      2.753      0.000      2.753      1.000     
  453             6.858      2.842      0.000      2.842      1.000     
  89              4.833      4.467      0.000      4.467      1.000     
  86              7.393      2.007      0.000      2.007      1.000     
  362             8.000      0.800      0.000      0.800      1.000     
  435             8.600      0.800      0.000      0.800      1.000     
  160             3.832      5.968      0.000      5.968      1.000     
  137             6.970      2.330      0.000      2.330      1.000     
  18              7.200      0.800      0.000      0.800      1.000     
  339             3.672      5.028      0.000      5.028      1.000     
  257             7.900      0.800      0.000      0.800      1.000     
  336             6.314      5.386      0.000      5.386      1.000     
  457             4.056      7.144      0.000      7.144      1.000     
  468             10.900     0.800      0.000      0.800      1.000     
  349             10.900     0.800      0.000      0.800      1.000     
  437             9.132      2.568      0.000      2.568      1.000     
  433             8.939      2.361      0.000      2.361      1.000     
  143             0.832      7.168      0.000      7.168      1.000     
  47              3.906      4.094      0.000      4.094      1.000     
  40              6.516      2.184      0.000      2.184      1.000     
  486             7.100      0.900      0.000      0.900      1.000     
  372             4.280      4.520      0.000      4.520      1.000     
  112             4.414      5.586      0.000      5.586      1.000     
  401             6.399      3.401      0.000      3.401      1.000     
  484             4.547      4.253      0.000      4.253      1.000     
  211             3.493      4.807      0.000      4.807      1.000     
  230             8.000      0.800      0.000      0.800      1.000     
  450             5.845      2.155      0.000      2.155      1.000     
  43              1.735      6.965      0.000      6.965      1.000     
  118             5.057      4.243      0.000      4.243      1.000     
  168             3.610      6.690      0.000      6.690      1.000     
  436             9.300      0.800      0.000      0.800      1.000     
  210             10.400     1.400      0.000      1.400      1.000     
  491             8.400      1.600      0.000      1.600      1.000     
  237             9.100      0.900      0.000      0.900      1.000     
  9               2.760      7.240      0.000      7.240      1.000     
  240             4.002      5.998      0.000      5.998      1.000     
  296             6.234      3.766      0.000      3.766      1.000     
  411             8.500      0.900      0.000      0.900      1.000     
  200             6.627      3.473      0.000      3.473      1.000     
  111             9.500      0.800      0.000      0.800      1.000     
  263             7.213      2.487      0.000      2.487      1.000     
  247             6.324      3.376      0.000      3.376      1.000     
  430             9.200      0.800      0.000      0.800      1.000     
  165             4.297      5.003      0.000      5.003      1.000     
  161             8.500      0.800      0.000      0.800      1.000     
  329             8.500      0.800      0.000      0.800      1.000     
  461             4.662      4.038      0.000      4.038      1.000     
  460             7.900      0.800      0.000      0.800      1.000     
  332             10.650     1.050      0.000      1.050      1.000     
  337             7.902      3.298      0.000      3.298      1.000     
  313             9.404      1.796      0.000      1.796      1.000     
  152             5.598      5.602      0.000      5.602      1.000     
  302             10.800     0.900      0.000      0.900      1.000     
  278             9.299      2.001      0.000      2.001      1.000     
  217             5.508      3.292      0.000      3.292      1.000     
  128             6.870      2.530      0.000      2.530      1.000     
  44              7.700      1.000      0.000      1.000      1.000     
  420             5.488      2.812      0.000      2.812      1.000     
  150             1.667      6.333      0.000      6.333      1.000     
  371             5.429      4.971      0.000      4.971      1.000     
  38              4.797      5.203      0.000      5.203      1.000     
  106             7.052      2.748      0.000      2.748      1.000     
  297             4.690      4.110      0.000      4.110      1.000     
  485             7.350      0.950      0.000      0.950      1.000     
  173             4.701      3.599      0.000      3.599      1.000     
  224             7.200      0.800      0.000      0.800      1.000     
  135             2.392      6.908      0.000      6.908      1.000     
  19              4.118      6.182      0.000      6.182      1.000     
  117             5.507      2.493      0.000      2.493      1.000     
  206             4.188      7.612      0.000      7.612      1.000     
  100             9.138      2.662      0.000      2.662      1.000     
  226             4.057      5.243      0.000      5.243      1.000     
  81              4.687      5.313      0.000      5.313      1.000     
  236             8.900      0.800      0.000      0.800      1.000     
  267             7.061      1.739      0.000      1.739      1.000     
  472             9.300      0.800      0.000      0.800      1.000     
  259             7.860      1.840      0.000      1.840      1.000     
  250             10.000     0.800      0.000      0.800      1.000     
  270             6.880      3.120      0.000      3.120      1.000     
  84              8.788      0.912      0.000      0.912      1.000     
  171             7.132      1.568      0.000      1.568      1.000     
  166             8.500      0.800      0.000      0.800      1.000     
  164             4.539      4.761      0.000      4.761      1.000     
  148             5.385      3.315      0.000      3.315      1.000     
  458             3.659      6.441      0.000      6.441      1.000     
  333             9.300      0.800      0.000      0.800      1.000     
  439             7.800      0.900      0.000      0.900      1.000     
  314             9.513      1.687      0.000      1.687      1.000     
  277             10.070     1.230      0.000      1.230      1.000     
  70              8.000      0.800      0.000      0.800      1.000     
  129             8.600      0.800      0.000      0.800      1.000     
  385             6.269      2.031      0.000      2.031      1.000     
  146             2.655      5.345      0.000      5.345      1.000     
  303             6.545      3.855      0.000      3.855      1.000     
  113             8.800      1.200      0.000      1.200      1.000     
  34              9.850      0.950      0.000      0.950      1.000     
  45              5.576      3.824      0.000      3.824      1.000     
  121             7.837      1.963      0.000      1.963      1.000     
  481             6.411      2.389      0.000      2.389      1.000     
  300             6.479      2.921      0.000      2.921      1.000     
  413             5.943      2.357      0.000      2.357      1.000     
  183             7.900      0.900      0.000      0.900      1.000     
  136             2.873      6.427      0.000      6.427      1.000     
  13              6.457      2.943      0.000      2.943      1.000     
  12              6.079      4.221      0.000      4.221      1.000     
  104             6.391      3.009      0.000      3.009      1.000     
  400             0.948      7.052      0.000      7.052      1.000     
  209             5.210      6.590      0.000      6.590      1.000     
  88              9.805      1.995      0.000      1.995      1.000     
  225             8.500      0.800      0.000      0.800      1.000     
  246             5.241      4.459      0.000      4.459      1.000     
  243             5.194      4.506      0.000      4.506      1.000     
  299             7.900      0.900      0.000      0.900      1.000     
  451             8.300      1.400      0.000      1.400      1.000     
  307             7.505      2.495      0.000      2.495      1.000     
  426             8.800      0.900      0.000      0.900      1.000     
  159             5.028      4.772      0.000      4.772      1.000     
  170             7.900      0.800      0.000      0.800      1.000     
  149             7.900      0.800      0.000      0.800      1.000     
  316             4.397      5.703      0.000      5.703      1.000     
  449             9.600      1.600      0.000      1.600      1.000     
  434             10.500     0.800      0.000      0.800      1.000     
  61              7.900      0.800      0.000      0.800      1.000     
  234             3.385      5.415      0.000      5.415      1.000     
  304             7.900      0.900      0.000      0.900      1.000     
  63              3.173      6.827      0.000      6.827      1.000     
  214             6.892      2.508      0.000      2.508      1.000     
  33              8.300      1.000      0.000      1.000      1.000     
  414             6.997      2.403      0.000      2.403      1.000     
  119             8.900      0.900      0.000      0.900      1.000     
  16              2.526      5.474      0.000      5.474      1.000     
  345             7.500      0.800      0.000      0.800      1.000     
  469             7.900      0.900      0.000      0.900      1.000     
  77              8.000      0.800      0.000      0.800      1.000     
  130             3.419      5.881      0.000      5.881      1.000     
  1               6.734      4.066      0.000      4.066      1.000     
  23              8.600      0.800      0.000      0.800      1.000     
  73              7.544      1.856      0.000      1.856      1.000     
  74              1.412      6.588      0.000      6.588      1.000     
  474             5.814      2.186      0.000      2.186      1.000     
  306             10.300     1.500      0.000      1.500      1.000     
  254             5.801      3.899      0.000      3.899      1.000     
  177             5.654      4.046      0.000      4.046      1.000     
  447             1.955      7.345      0.000      7.345      1.000     
  202             10.000     0.800      0.000      0.800      1.000     
  158             5.464      4.336      0.000      4.336      1.000     
  30              7.191      2.109      0.000      2.109      1.000     
  459             7.543      4.157      0.000      4.157      1.000     
  463             5.417      6.283      0.000      6.283      1.000     
  309             3.232      5.468      0.000      5.468      1.000     
  235             4.210      4.590      0.000      4.590      1.000     
  233             5.953      2.847      0.000      2.847      1.000     
  415             8.350      0.950      0.000      0.950      1.000     
  67              8.450      0.950      0.000      0.950      1.000     
  60              8.500      0.800      0.000      0.800      1.000     
  114             4.676      4.324      0.000      4.324      1.000     
  14              4.194      3.806      0.000      3.806      1.000     
  131             7.500      1.200      0.000      1.200      1.000     
  53              4.811      4.489      0.000      4.489      1.000     
  408             8.900      1.400      0.000      1.400      1.000     
  8               7.857      2.943      0.000      2.943      1.000     
  116             8.300      1.100      0.000      1.100      1.000     
  389             8.900      0.900      0.000      0.900      1.000     
  498             8.400      0.900      0.000      0.900      1.000     
  11              2.702      5.298      0.000      5.298      1.000     
  354             8.800      1.300      0.000      1.300      1.000     
  493             7.200      0.800      0.000      0.800      1.000     
  367             3.653      6.447      0.000      6.447      1.000     
  273             6.880      3.920      0.000      3.920      1.000     
  178             6.383      3.317      0.000      3.317      1.000     
  242             8.500      0.800      0.000      0.800      1.000     
  179             5.961      3.339      0.000      3.339      1.000     
  82              2.777      6.523      0.000      6.523      1.000     
  162             8.000      1.300      0.000      1.300      1.000     
  75              7.200      0.800      0.000      0.800      1.000     
  403             8.500      0.800      0.000      0.800      1.000     
  465             7.773      3.927      0.000      3.927      1.000     
  325             5.950      5.750      0.000      5.750      1.000     
  310             3.540      5.160      0.000      5.160      1.000     
  448             7.800      0.900      0.000      0.900      1.000     
  216             4.857      3.943      0.000      3.943      1.000     
  145             7.200      0.800      0.000      0.800      1.000     
  222             8.200      0.800      0.000      0.800      1.000     
  115             5.383      3.917      0.000      3.917      1.000     
  24              6.219      2.481      0.000      2.481      1.000     
  54              1.727      6.973      0.000      6.973      1.000     
  139             6.249      2.451      0.000      2.451      1.000     
  2               2.197      7.203      0.000      7.203      1.000     
  110             9.400      0.900      0.000      0.900      1.000     
  407             4.002      5.298      0.000      5.298      1.000     
  108             2.438      6.862      0.000      6.862      1.000     
  353             10.100     1.200      0.000      1.200      1.000     
  293             10.900     0.800      0.000      0.800      1.000     
  96              5.012      5.088      0.000      5.088      1.000     
  196             4.582      5.518      0.000      5.518      1.000     
  203             10.000     0.800      0.000      0.800      1.000     
  274             9.048      1.752      0.000      1.752      1.000     
  244             8.500      0.800      0.000      0.800      1.000     
  174             2.145      7.555      0.000      7.555      1.000     
  245             7.579      2.121      0.000      2.121      1.000     
  255             6.590      2.710      0.000      2.710      1.000     
  83              8.886      0.814      0.000      0.814      1.000     
  79              4.104      3.896      0.000      3.896      1.000     
  163             1.266      7.434      0.000      7.434      1.000     
  343             10.900     0.800      0.000      0.800      1.000     
  324             10.400     0.800      0.000      0.800      1.000     
  189             6.398      5.302      0.000      5.302      1.000     
  330             4.131      4.569      0.000      4.569      1.000     
  215             5.435      3.865      0.000      3.865      1.000     
  51              6.129      3.171      0.000      3.171      1.000     
  26              7.900      0.800      0.000      0.800      1.000     
  142             7.900      0.800      0.000      0.800      1.000     
  52              2.414      6.286      0.000      6.286      1.000     
  7               2.945      6.355      0.000      6.355      1.000     
  394             3.007      6.293      0.000      6.293      1.000     
  28              6.142      3.158      0.000      3.158      1.000     
  281             3.954      7.346      0.000      7.346      1.000     
  185             7.200      0.800      0.000      0.800      1.000     
  182             9.657      2.043      0.000      2.043      1.000     
  85              5.870      5.830      0.000      5.830      1.000     
  318             9.900      0.900      0.000      0.900      1.000     
  422             9.200      0.800      0.000      0.800      1.000     
  221             2.820      6.880      0.000      6.880      1.000     
  425             8.900      0.800      0.000      0.800      1.000     
  256             7.900      0.800      0.000      0.800      1.000     
  175             5.771      2.229      0.000      2.229      1.000     
  80              7.198      2.502      0.000      2.502      1.000     
  326             2.264      7.036      0.000      7.036      1.000     
  169             2.022      6.678      0.000      6.678      1.000     
  55              4.338      4.962      0.000      4.962      1.000     
  187             9.424      2.276      0.000      2.276      1.000     
  193             7.500      4.200      0.000      4.200      1.000     
  322             9.791      1.909      0.000      1.909      1.000     
  266             4.658      4.642      0.000      4.642      1.000     
  232             6.604      2.696      0.000      2.696      1.000     
  220             8.400      0.900      0.000      0.900      1.000     
  396             7.700      1.000      0.000      1.000      1.000     
  124             5.950      2.750      0.000      2.750      1.000     
  127             3.188      5.512      0.000      5.512      1.000     
  109             4.125      5.175      0.000      5.175      1.000     
  4               9.100      0.900      0.000      0.900      1.000     
  105             4.045      5.755      0.000      5.755      1.000     
  20              7.200      0.800      0.000      0.800      1.000     
  279             4.618      6.682      0.000      6.682      1.000     
  285             9.050      1.050      0.000      1.050      1.000     
  194             10.900     0.800      0.000      0.800      1.000     
  94              6.302      5.398      0.000      5.398      1.000     
  78              3.503      6.497      0.000      6.497      1.000     
  239             8.500      0.800      0.000      0.800      1.000     
  176             6.934      2.366      0.000      2.366      1.000     
  190             2.775      6.525      0.000      6.525      1.000     
  56              2.899      6.401      0.000      6.401      1.000     
  57              5.078      4.222      0.000      4.222      1.000     
  338             8.881      2.819      0.000      2.819      1.000     
  455             8.511      3.189      0.000      3.189      1.000     
  92              10.200     1.500      0.000      1.500      1.000     
  462             5.601      3.099      0.000      3.099      1.000     
  262             7.726      1.574      0.000      1.574      1.000     
  454             10.900     0.800      0.000      0.800      1.000     
  231             8.500      0.800      0.000      0.800      1.000     
  39              7.900      0.800      0.000      0.800      1.000     
  126             3.631      5.069      0.000      5.069      1.000     
  22              6.445      2.955      0.000      2.955      1.000     
  50              4.942      5.058      0.000      5.058      1.000     
  120             5.477      3.823      0.000      3.823      1.000     
  467             6.161      5.139      0.000      5.139      1.000     
  294             1.265      6.735      0.000      6.735      1.000     
  359             6.812      4.888      0.000      4.888      1.000     
  358             7.176      4.524      0.000      4.524      1.000     
  95              8.112      3.588      0.000      3.588      1.000     
  62              4.661      4.639      0.000      4.639      1.000     
  238             8.500      0.800      0.000      0.800      1.000     
  180             3.305      6.395      0.000      6.395      1.000     
  133             3.639      6.161      0.000      6.161      1.000     
  58              5.594      3.706      0.000      3.706      1.000     
  334             9.795      2.005      0.000      2.005      1.000     
  331             9.472      2.328      0.000      2.328      1.000     
  90              3.946      7.754      0.000      7.754      1.000     
  340             6.371      2.329      0.000      2.329      1.000     
  261             8.500      0.800      0.000      0.800      1.000     
  125             4.173      4.527      0.000      4.527      1.000     
  21              8.600      0.800      0.000      0.800      1.000     
  49              6.879      3.121      0.000      3.121      1.000     
  37              7.298      2.702      0.000      2.702      1.000     
  15              7.200      0.800      0.000      0.800      1.000     
  466             7.200      0.800      0.000      0.800      1.000     
  366             8.108      3.592      0.000      3.592      1.000     
  494             1.856      6.144      0.000      6.144      1.000     
  365             7.615      4.085      0.000      4.085      1.000     
  97              9.300      0.800      0.000      0.800      1.000     
  423             8.750      0.950      0.000      0.950      1.000     
  66              7.850      0.950      0.000      0.950      1.000     
  35              8.500      0.800      0.000      0.800      1.000     
  260             3.894      5.406      0.000      5.406      1.000     
  402             9.100      0.900      0.000      0.900      1.000     
  132             4.322      5.478      0.000      5.478      1.000     
  59              6.363      2.937      0.000      2.937      1.000     
  464             10.900     0.900      0.000      0.900      1.000     
  192             11.000     0.800      0.000      0.800      1.000     
  248             5.006      6.694      0.000      6.694      1.000     
  311             7.900      0.800      0.000      0.800      1.000     
  155             7.900      0.800      0.000      0.800      1.000     
  140             5.335      3.365      0.000      3.365      1.000     
  102             8.500      0.800      0.000      0.800      1.000     
  48              8.900      0.900      0.000      0.900      1.000     
  36              9.000      0.800      0.000      0.800      1.000     
  369             9.300      0.800      0.000      0.800      1.000     
  356             2.252      6.048      0.000      6.048      1.000     
  368             9.300      0.800      0.000      0.800      1.000     
  195             10.400     1.300      0.000      1.300      1.000     
  264             4.826      4.474      0.000      4.474      1.000     
  134             5.064      4.236      0.000      4.236      1.000     
  409             7.900      0.800      0.000      0.800      1.000     
  251             10.900     0.800      0.000      0.800      1.000     
  271             5.482      6.218      0.000      6.218      1.000     
  141             6.254      2.446      0.000      2.446      1.000     
  355             2.813      5.487      0.000      5.487      1.000     
  482             7.200      0.800      0.000      0.800      1.000     
  197             3.562      6.538      0.000      6.538      1.000     
  327             5.728      3.572      0.000      3.572      1.000     
  181             7.015      2.285      0.000      2.285      1.000     
  42              6.165      2.535      0.000      2.535      1.000     
  275             6.060      5.640      0.000      5.640      1.000     
  138             7.900      0.800      0.000      0.800      1.000     
  288             3.556      4.744      0.000      4.744      1.000     